RELAT.OUT
CEPEL - CENTRO DE PESQUISAS DE ENERGIA ELETRICA - PROGRAMA DE ANALISE DE REDES - V12.00.01                                 PAG.   1

 ****   Sistema teste de 14 maquinas - IEEE  ****                                
 RELATORIO DE CONVERGENCIA

 OPCOES ATIVADAS: QLIM NEWT RCVG RMON FILE INMN UNPG

 X-----------X------X------X---------------X---------------X---------------X--X-----------------------------------------------------------X
    ITERACAO          FREQ.  ERRO MAX BARRA  ERRO MAX BARRA  ERRO MAX  CONV                                                                
  FC  P  Q  V  M.O.   (Hz)       MW    NUM.     Mvar   NUM.  TENSAO %  NUM. FM  BARRA(B), CIRCUITO(C) E CONVERSOR COM LIMITE VIOLADO       
 X--X--X--X--X------X------X---------X-----X---------X-----X---------X-----X--X-----------------------------------------------------------X

      1  1    1.0000 60.000     92.19     3     61.85     7
      2  2    1.0000 60.000      6.02     2      8.55     5
      3  3    1.0000 60.000      0.01     4**********     8
                                                                                  8B
      4  4    1.0000 60.000      0.00     6      0.00     8
 ................................................................




 CONVERGENCIA FINAL

 X-----------X------X------X---------------X---------------X---------------X
    ITERACAO          FREQ. ERRO MAX BARRA  ERRO MAX BARRA  ERRO MAX  CONV  
  FC  P  Q  V  M.O.   (Hz)      MW    NUM.     Mvar   NUM.  TENSAO %  NUM.  
 X--X--X--X--X------X------X---------X-----X---------X-----X---------X-----X

   0                             0.00     0      0.00     0
      4  4  0 1.0000 60.000      0.00     4      0.00     5     0.000     0
CEPEL - CENTRO DE PESQUISAS DE ENERGIA ELETRICA - PROGRAMA DE ANALISE DE REDES - V12.00.01                                 PAG.   2

 ****   Sistema teste de 14 maquinas - IEEE  ****                                
 RELATORIO DE BARRAS CA DO SISTEMA * AREA   1 *                                     

 X---------------------X-----------X---------------X---------------X---------------X---------------X---------------X---------------X---X
          BARRA            TENSAO        GERACAO     INJECAO EQUIV        CARGA          ELO CC          SHUNT           MOTOR
  NUM.      NOME     TP  MOD   ANG      MW    Mvar\     MW    Mvar      MW    Mvar      MW    Mvar    Mvar   EQUIV      MW    Mvar
                                            CE Mvar                                                 SHUNT L                         EST
 X-----X------------X--X-----X-----X-------X-------X-------X-------X-------X-------X-------X-------X-------X-------X-------X-------X---X

      1 BARRA-1       2 1.060  -0.0   232.4   -16.2     0.0     0.0     0.0     0.0     0.0     0.0     0.0     0.0     0.0     0.0 LIG
      2 BARRA-2       1 1.045  -5.0    40.0    44.6     0.0     0.0    21.7    12.7     0.0     0.0     0.0     0.0     0.0     0.0 LIG
      3 BARRA-3       1 1.010 -12.7     0.0    24.8     0.0     0.0    94.2    19.0     0.0     0.0     0.0     0.0     0.0     0.0 LIG
      4 BARRA-4       0 1.016 -10.3     0.0     0.0     0.0     0.0    47.8    -3.9     0.0     0.0     0.0     0.0     0.0     0.0 LIG
      5 BARRA-5       0 1.019  -8.8     0.0     0.0     0.0     0.0     7.6     1.6     0.0     0.0     0.0     0.0     0.0     0.0 LIG
      6 BARRA-6       1 1.070 -14.3     0.0    15.4     0.0     0.0    11.2     7.5     0.0     0.0     0.0     0.0     0.0     0.0 LIG
      7 BARRA-7       0 1.052 -13.3     0.0     0.0     0.0     0.0     0.0     0.0     0.0     0.0     0.0     0.0     0.0     0.0 LIG
      8 BARRA-8      -1 1.068 -13.3     0.0    10.0     0.0     0.0     0.0     0.0     0.0     0.0     0.0     0.0     0.0     0.0 LIG
      9 BARRA-9       0 1.049 -14.9     0.0     0.0     0.0     0.0    29.5    16.6     0.0     0.0    20.9     0.0     0.0     0.0 LIG
     10 BARRA-10      0 1.045 -15.1     0.0     0.0     0.0     0.0     9.0     5.8     0.0     0.0     0.0     0.0     0.0     0.0 LIG
     11 BARRA-11      0 1.054 -14.8     0.0     0.0     0.0     0.0     3.5     1.8     0.0     0.0     0.0     0.0     0.0     0.0 LIG
     12 BARRA-12      0 1.055 -15.1     0.0     0.0     0.0     0.0     6.1     1.6     0.0     0.0     0.0     0.0     0.0     0.0 LIG
     13 BARRA-13      0 1.049 -15.2     0.0     0.0     0.0     0.0    13.5     5.8     0.0     0.0     0.0     0.0     0.0     0.0 LIG
     14 BARRA-14      0 1.031 -16.0     0.0     0.0     0.0     0.0    14.9     5.0     0.0     0.0     0.0     0.0     0.0     0.0 LIG
CEPEL - CENTRO DE PESQUISAS DE ENERGIA ELETRICA - PROGRAMA DE ANALISE DE REDES - V12.00.01                                 PAG.   3

 ****   Sistema teste de 14 maquinas - IEEE  ****                                
 RELATORIO COMPLETO DO SISTEMA * AREA   1 *                                     

 X--------------------- D A D O S  -  B A R R A ---------------------------X------------- F L U X O S  -  C I R C U I T O S --------------X-----------------X-----------X-------X
  DA BARRA       TENSAO GERACAO INJ EQV  CARGA    ELO CC     SHUNT   MOTOR                                                                                                       
  NUM.  KV TIPO   MOD/     MW/     MW/     MW/      MW/      Mvar/     MW/                                                                    P E R D A S    T E N S A O         
       NOME       ANG     Mvar    Mvar    Mvar     Mvar      EQUIV    Mvar  PARA BARRA             F   L   U   X   O   S                    ATIVA   REATIVA  CIR. ABERTO  TRAFO  
                        MVA_NOM MVA_EMR MVA_EQP   FLUXO %   SHUNT L         NUM.      NOME     NC    MW     Mvar  MVA/V_d   TAP  DEFAS TIE    MW      Mvar    MOD   ANG  UOp UMx 
 X-------------X-------X-------X-------X-------X-----------X-------X-------X-----X------------X--X-------X-------X-------X------X-----X---X--------X--------X-----X-----X---X---X

      1    1  2   1.060   232.4     0.0     0.0         0.0     0.0     0.0
  BARRA-1          -0.0   -16.2     0.0     0.0         0.0     0.0     0.0                                          
                         9999.0  9999.0  9999.0        0.0%                     2 BARRA-2       1   156.9   -20.4   149.3                      4.30     7.28                    
                         9999.0  9999.0  9999.0        0.0%                     5 BARRA-5       1    75.5     4.2    71.3                      2.76     6.10                    
  ...............................................................................................................................................................................
      2    1  1   1.045    40.0     0.0    21.7         0.0     0.0     0.0
  BARRA-2          -5.0    44.6     0.0    12.7         0.0     0.0     0.0                                          
                         9999.0  9999.0  9999.0        0.0%                     1 BARRA-1       1  -152.6    27.7   148.4                      4.30     7.28                    
                         9999.0  9999.0  9999.0        0.0%                     3 BARRA-3       1    73.3     3.6    70.2                      2.33     5.17                    
                         9999.0  9999.0  9999.0        0.0%                     4 BARRA-4       1    56.1    -1.0    53.7                      1.67     1.10                    
                         9999.0  9999.0  9999.0        0.0%                     5 BARRA-5       1    41.6     1.6    39.8                      0.91    -0.85                    
  ...............................................................................................................................................................................
      3    1  1   1.010     0.0     0.0    94.2         0.0     0.0     0.0
  BARRA-3         -12.7    24.8     0.0    19.0         0.0     0.0     0.0                                          
                         9999.0  9999.0  9999.0        0.0%                     2 BARRA-2       1   -71.0     1.6    70.3                      2.33     5.17                    
                         9999.0  9999.0  9999.0        0.0%                     4 BARRA-4       1   -23.2     4.1    23.4                      0.38    -2.59                    
  ...............................................................................................................................................................................
      4    1  0   1.016     0.0     0.0    47.8         0.0     0.0     0.0
  BARRA-4         -10.3     0.0     0.0    -3.9         0.0     0.0     0.0                                          
                         9999.0  9999.0  9999.0        0.0%                     2 BARRA-2       1   -54.4     2.1    53.6                      1.67     1.10                    
                         9999.0  9999.0  9999.0        0.0%                     3 BARRA-3       1    23.6    -6.7    24.2                      0.38    -2.59                    
                         9999.0  9999.0  9999.0        0.0%                     5 BARRA-5       1   -60.7    13.5    61.2                      0.50     0.26                    
                         9999.0  9999.0  9999.0        0.0%                     7 BARRA-7       1    27.7    -5.5    27.8 0.978F               0.00     1.55             001 001
                         9999.0  9999.0  9999.0        0.0%                     9 BARRA-9       1    16.0     0.6    15.7 0.969F               0.00     1.29             001 001
  ...............................................................................................................................................................................
      5    1  0   1.019     0.0     0.0     7.6         0.0     0.0     0.0
  BARRA-5          -8.8     0.0     0.0     1.6         0.0     0.0     0.0                                          
                         9999.0  9999.0  9999.0        0.0%                     1 BARRA-1       1   -72.7     1.9    71.4                      2.76     6.10                    
                         9999.0  9999.0  9999.0        0.0%                     2 BARRA-2       1   -40.7    -2.5    40.0                      0.91    -0.85                    
                         9999.0  9999.0  9999.0        0.0%                     4 BARRA-4       1    61.2   -13.3    61.5                      0.50     0.26                    
                         9999.0  9999.0  9999.0        0.0%                     6 BARRA-6       1    44.6    12.2    45.4 0.932F               0.00     4.50             001 001
  ...............................................................................................................................................................................
      6    1  1   1.070     0.0     0.0    11.2         0.0     0.0     0.0
  BARRA-6         -14.3    15.4     0.0     7.5         0.0     0.0     0.0                                          
                         9999.0  9999.0  9999.0        0.0%                     5 BARRA-5       1   -44.6    -7.7    42.3                      0.00     4.50                    
                         9999.0  9999.0  9999.0        0.0%                    11 BARRA-11      1     7.6     4.9     8.5                      0.07     0.14                    
                         9999.0  9999.0  9999.0        0.0%                    12 BARRA-12      1     7.9     2.7     7.8                      0.07     0.15                    
                         9999.0  9999.0  9999.0        0.0%                    13 BARRA-13      1    17.9     7.9    18.3                      0.22     0.44                    
  ...............................................................................................................................................................................
CEPEL - CENTRO DE PESQUISAS DE ENERGIA ELETRICA - PROGRAMA DE ANALISE DE REDES - V12.00.01                                 PAG.   4

 ****   Sistema teste de 14 maquinas - IEEE  ****                                
 RELATORIO COMPLETO DO SISTEMA * AREA   1 *                                     

 X--------------------- D A D O S  -  B A R R A ---------------------------X------------- F L U X O S  -  C I R C U I T O S --------------X-----------------X-----------X-------X
  DA BARRA       TENSAO GERACAO INJ EQV  CARGA    ELO CC     SHUNT   MOTOR                                                                                                       
  NUM.  KV TIPO   MOD/     MW/     MW/     MW/      MW/      Mvar/     MW/                                                                    P E R D A S    T E N S A O         
       NOME       ANG     Mvar    Mvar    Mvar     Mvar      EQUIV    Mvar  PARA BARRA             F   L   U   X   O   S                    ATIVA   REATIVA  CIR. ABERTO  TRAFO  
                        MVA_NOM MVA_EMR MVA_EQP   FLUXO %   SHUNT L         NUM.      NOME     NC    MW     Mvar  MVA/V_d   TAP  DEFAS TIE    MW      Mvar    MOD   ANG  UOp UMx 
 X-------------X-------X-------X-------X-------X-----------X-------X-------X-----X------------X--X-------X-------X-------X------X-----X---X--------X--------X-----X-----X---X---X

      7    1  0   1.052     0.0     0.0     0.0         0.0     0.0     0.0
  BARRA-7         -13.3     0.0     0.0     0.0         0.0     0.0     0.0                                          
                         9999.0  9999.0  9999.0        0.0%                     4 BARRA-4       1   -27.7     7.1    27.2                      0.00     1.55                    
                         9999.0  9999.0  9999.0        0.0%                     8 BARRA-8       1     0.0    -9.8     9.4                      0.00     0.15                    
                         9999.0  9999.0  9999.0        0.0%                     9 BARRA-9       1    27.7     2.8    26.5                      0.00     0.77                    
  ...............................................................................................................................................................................
      8    1 -1   1.068     0.0     0.0     0.0         0.0     0.0     0.0
  BARRA-8         -13.3    10.0     0.0     0.0         0.0     0.0     0.0                                          
                         9999.0  9999.0  9999.0        0.0%                     7 BARRA-7       1     0.0    10.0     9.4                      0.00     0.15                    
  ...............................................................................................................................................................................
      9    1  0   1.049     0.0     0.0    29.5         0.0    20.9     0.0
  BARRA-9         -14.9     0.0     0.0    16.6         0.0     0.0     0.0                                          
                         9999.0  9999.0  9999.0        0.0%                     4 BARRA-4       1   -16.0     0.7    15.2                      0.00     1.29                    
                         9999.0  9999.0  9999.0        0.0%                     7 BARRA-7       1   -27.7    -2.0    26.5                      0.00     0.77                    
                         9999.0  9999.0  9999.0        0.0%                    10 BARRA-10      1     5.0     2.9     5.5                      0.01     0.03                    
                         9999.0  9999.0  9999.0        0.0%                    14 BARRA-14      1     9.2     2.7     9.2                      0.11     0.23                    
  ...............................................................................................................................................................................
     10    1  0   1.045     0.0     0.0     9.0         0.0     0.0     0.0
  BARRA-10        -15.1     0.0     0.0     5.8         0.0     0.0     0.0                                          
                         9999.0  9999.0  9999.0        0.0%                     9 BARRA-9       1    -5.0    -2.8     5.5                      0.01     0.03                    
                         9999.0  9999.0  9999.0        0.0%                    11 BARRA-11      1    -4.0    -3.0     4.8                      0.02     0.04                    
  ...............................................................................................................................................................................
     11    1  0   1.054     0.0     0.0     3.5         0.0     0.0     0.0
  BARRA-11        -14.8     0.0     0.0     1.8         0.0     0.0     0.0                                          
                         9999.0  9999.0  9999.0        0.0%                     6 BARRA-6       1    -7.5    -4.8     8.5                      0.07     0.14                    
                         9999.0  9999.0  9999.0        0.0%                    10 BARRA-10      1     4.0     3.0     4.8                      0.02     0.04                    
  ...............................................................................................................................................................................
     12    1  0   1.055     0.0     0.0     6.1         0.0     0.0     0.0
  BARRA-12        -15.1     0.0     0.0     1.6         0.0     0.0     0.0                                          
                         9999.0  9999.0  9999.0        0.0%                     6 BARRA-6       1    -7.8    -2.5     7.8                      0.07     0.15                    
                         9999.0  9999.0  9999.0        0.0%                    13 BARRA-13      1     1.7     0.9     1.8                      0.01     0.01                    
  ...............................................................................................................................................................................
     13    1  0   1.049     0.0     0.0    13.5         0.0     0.0     0.0
  BARRA-13        -15.2     0.0     0.0     5.8         0.0     0.0     0.0                                          
                         9999.0  9999.0  9999.0        0.0%                     6 BARRA-6       1   -17.7    -7.5    18.3                      0.22     0.44                    
                         9999.0  9999.0  9999.0        0.0%                    12 BARRA-12      1    -1.7    -0.9     1.8                      0.01     0.01                    
                         9999.0  9999.0  9999.0        0.0%                    14 BARRA-14      1     5.9     2.6     6.1                      0.06     0.13                    
  ...............................................................................................................................................................................
CEPEL - CENTRO DE PESQUISAS DE ENERGIA ELETRICA - PROGRAMA DE ANALISE DE REDES - V12.00.01                                 PAG.   5

 ****   Sistema teste de 14 maquinas - IEEE  ****                                
 RELATORIO COMPLETO DO SISTEMA * AREA   1 *                                     

 X--------------------- D A D O S  -  B A R R A ---------------------------X------------- F L U X O S  -  C I R C U I T O S --------------X-----------------X-----------X-------X
  DA BARRA       TENSAO GERACAO INJ EQV  CARGA    ELO CC     SHUNT   MOTOR                                                                                                       
  NUM.  KV TIPO   MOD/     MW/     MW/     MW/      MW/      Mvar/     MW/                                                                    P E R D A S    T E N S A O         
       NOME       ANG     Mvar    Mvar    Mvar     Mvar      EQUIV    Mvar  PARA BARRA             F   L   U   X   O   S                    ATIVA   REATIVA  CIR. ABERTO  TRAFO  
                        MVA_NOM MVA_EMR MVA_EQP   FLUXO %   SHUNT L         NUM.      NOME     NC    MW     Mvar  MVA/V_d   TAP  DEFAS TIE    MW      Mvar    MOD   ANG  UOp UMx 
 X-------------X-------X-------X-------X-------X-----------X-------X-------X-----X------------X--X-------X-------X-------X------X-----X---X--------X--------X-----X-----X---X---X

     14    1  0   1.031     0.0     0.0    14.9         0.0     0.0     0.0
  BARRA-14        -16.0     0.0     0.0     5.0         0.0     0.0     0.0                                          
                         9999.0  9999.0  9999.0        0.0%                     9 BARRA-9       1    -9.1    -2.5     9.2                      0.11     0.23                    
                         9999.0  9999.0  9999.0        0.0%                    13 BARRA-13      1    -5.8    -2.5     6.1                      0.06     0.13                    



 TOTAIS DA AREA   1


 X--------X--------X--------X--------X--------X--------X--------X--------X
   GERACAO  INJ EQV   CARGA   ELO CC    SHUNT   EXPORT   IMPORT   PERDAS  
     MW/      MW/      MW/      MW/     Mvar/     MW/      MW/      MW/   
    Mvar     Mvar     Mvar     Mvar     EQUIV    Mvar     Mvar     Mvar   
 X--------X--------X--------X--------X--------X--------X--------X--------X

     272.4      0.0    259.0      0.0     20.9      0.0      0.0     13.4
      78.5      0.0     73.5      0.0      0.0      0.0      0.0     25.9
